!-Generator IDFEditor 1.53
!-Option SortedOrder

!-NOTE: All comments with '!-' are ignored by the IDFEditor and are generated automatically.
!-      Use '!' comments if they need to be retained when using the IDFEditor.


!-   ===========  ALL OBJECTS IN CLASS: VERSION ===========

Version,
    23.1;                    !- Version Identifier


!-   ===========  ALL OBJECTS IN CLASS: SIMULATIONCONTROL ===========

SimulationControl,
    Yes,                     !- Do Zone Sizing Calculation
    Yes,                     !- Do System Sizing Calculation
    No,                      !- Do Plant Sizing Calculation
    Yes,                     !- Run Simulation for Sizing Periods
    Yes,                     !- Run Simulation for Weather File Run Periods
    ,                        !- Do HVAC Sizing Simulation for Sizing Periods
    ;                        !- Maximum Number of HVAC Sizing Simulation Passes


!-   ===========  ALL OBJECTS IN CLASS: BUILDING ===========

Building,
    US+SF+CZ1AWHT+elecres+slab+IECC_2006,  !- Name
    0,                       !- North Axis {deg}
    Suburbs,                 !- Terrain
    0.04,                    !- Loads Convergence Tolerance Value {W}
    0.4,                     !- Temperature Convergence Tolerance Value {deltaC}
    FullExterior,            !- Solar Distribution
    25,                      !- Maximum Number of Warmup Days
    6;                       !- Minimum Number of Warmup Days


!-   ===========  ALL OBJECTS IN CLASS: SURFACECONVECTIONALGORITHM:INSIDE ===========

SurfaceConvectionAlgorithm:Inside,
    TARP;                    !- Algorithm


!-   ===========  ALL OBJECTS IN CLASS: TIMESTEP ===========

Timestep,
    6;                       !- Number of Timesteps per Hour


!-   ===========  ALL OBJECTS IN CLASS: SITE:LOCATION ===========

Site:Location,
    Honolulu Intl Arpt_HI_USA Design_Conditions,  !- Name
    21.32,                   !- Latitude {deg}
    -157.93,                 !- Longitude {deg}
    -10,                     !- Time Zone {hr}
    2;                       !- Elevation {m}


!-   ===========  ALL OBJECTS IN CLASS: SIZINGPERIOD:DESIGNDAY ===========

SizingPeriod:DesignDay,
    Honolulu Intl Arpt Ann Htg 99.6% Condns DB,  !- Name
    2,                       !- Month
    21,                      !- Day of Month
    WinterDesignDay,         !- Day Type
    16.2,                    !- Maximum Dry-Bulb Temperature {C}
    0,                       !- Daily Dry-Bulb Temperature Range {deltaC}
    DefaultMultipliers,      !- Dry-Bulb Temperature Range Modifier Type
    ,                        !- Dry-Bulb Temperature Range Modifier Day Schedule Name
    Wetbulb,                 !- Humidity Condition Type
    16.2,                    !- Wetbulb or DewPoint at Maximum Dry-Bulb {C}
    ,                        !- Humidity Condition Day Schedule Name
    ,                        !- Humidity Ratio at Maximum Dry-Bulb {kgWater/kgDryAir}
    ,                        !- Enthalpy at Maximum Dry-Bulb {J/kg}
    ,                        !- Daily Wet-Bulb Temperature Range {deltaC}
    101301,                  !- Barometric Pressure {Pa}
    1.9,                     !- Wind Speed {m/s}
    320,                     !- Wind Direction {deg}
    No,                      !- Rain Indicator
    No,                      !- Snow Indicator
    No,                      !- Daylight Saving Time Indicator
    ASHRAEClearSky,          !- Solar Model Indicator
    ,                        !- Beam Solar Day Schedule Name
    ,                        !- Diffuse Solar Day Schedule Name
    ,                        !- ASHRAE Clear Sky Optical Depth for Beam Irradiance (taub) {dimensionless}
    ,                        !- ASHRAE Clear Sky Optical Depth for Diffuse Irradiance (taud) {dimensionless}
    0;                       !- Sky Clearness

SizingPeriod:DesignDay,
    Honolulu Intl Arpt Ann Clg .4% Condns DB=>MWB,  !- Name
    8,                       !- Month
    21,                      !- Day of Month
    SummerDesignDay,         !- Day Type
    32.2,                    !- Maximum Dry-Bulb Temperature {C}
    7.1,                     !- Daily Dry-Bulb Temperature Range {deltaC}
    DefaultMultipliers,      !- Dry-Bulb Temperature Range Modifier Type
    ,                        !- Dry-Bulb Temperature Range Modifier Day Schedule Name
    Wetbulb,                 !- Humidity Condition Type
    23.3,                    !- Wetbulb or DewPoint at Maximum Dry-Bulb {C}
    ,                        !- Humidity Condition Day Schedule Name
    ,                        !- Humidity Ratio at Maximum Dry-Bulb {kgWater/kgDryAir}
    ,                        !- Enthalpy at Maximum Dry-Bulb {J/kg}
    ,                        !- Daily Wet-Bulb Temperature Range {deltaC}
    101301,                  !- Barometric Pressure {Pa}
    6.7,                     !- Wind Speed {m/s}
    60,                      !- Wind Direction {deg}
    No,                      !- Rain Indicator
    No,                      !- Snow Indicator
    No,                      !- Daylight Saving Time Indicator
    ASHRAETau,               !- Solar Model Indicator
    ,                        !- Beam Solar Day Schedule Name
    ,                        !- Diffuse Solar Day Schedule Name
    0.382,                   !- ASHRAE Clear Sky Optical Depth for Beam Irradiance (taub) {dimensionless}
    2.521;                   !- ASHRAE Clear Sky Optical Depth for Diffuse Irradiance (taud) {dimensionless}


!-   ===========  ALL OBJECTS IN CLASS: RUNPERIOD ===========

RunPeriod,
    annual,                  !- Name
    1,                       !- Begin Month
    1,                       !- Begin Day of Month
    ,                        !- Begin Year
    12,                      !- End Month
    31,                      !- End Day of Month
    ,                        !- End Year
    Sunday,                  !- Day of Week for Start Day
    Yes,                     !- Use Weather File Holidays and Special Days
    Yes,                     !- Use Weather File Daylight Saving Period
    No,                      !- Apply Weekend Holiday Rule
    Yes,                     !- Use Weather File Rain Indicators
    Yes;                     !- Use Weather File Snow Indicators


!-   ===========  ALL OBJECTS IN CLASS: SITE:WATERMAINSTEMPERATURE ===========

Site:WaterMainsTemperature,
    Correlation,             !- Calculation Method
    ,                        !- Temperature Schedule Name
    24.9166666666667,        !- Annual Average Outdoor Air Temperature {C}
    4.6;                     !- Maximum Difference In Monthly Average Outdoor Air Temperatures {deltaC}


!-   ===========  ALL OBJECTS IN CLASS: SCHEDULETYPELIMITS ===========

ScheduleTypeLimits,
    any number;              !- Name

ScheduleTypeLimits,
    On/Off,                  !- Name
    0,                       !- Lower Limit Value
    1,                       !- Upper Limit Value
    Discrete;                !- Numeric Type

ScheduleTypeLimits,
    control_type,            !- Name
    0,                       !- Lower Limit Value
    4,                       !- Upper Limit Value
    Discrete;                !- Numeric Type

ScheduleTypeLimits,
    fraction,                !- Name
    0,                       !- Lower Limit Value
    1,                       !- Upper Limit Value
    Continuous;              !- Numeric Type

ScheduleTypeLimits,
    Temperature,             !- Name
    -60,                     !- Lower Limit Value
    200,                     !- Upper Limit Value
    Continuous;              !- Numeric Type


!-   ===========  ALL OBJECTS IN CLASS: SCHEDULE:DAY:HOURLY ===========

Schedule:Day:Hourly,
    OccupancyDay,            !- Name
    Fraction,                !- Schedule Type Limits Name
    1,                       !- Hour 1
    1,                       !- Hour 2
    1,                       !- Hour 3
    1,                       !- Hour 4
    1,                       !- Hour 5
    1,                       !- Hour 6
    1,                       !- Hour 7
    0.8831,                  !- Hour 8
    0.40861,                 !- Hour 9
    0.24189,                 !- Hour 10
    0.24189,                 !- Hour 11
    0.24189,                 !- Hour 12
    0.24189,                 !- Hour 13
    0.24189,                 !- Hour 14
    0.24189,                 !- Hour 15
    0.24189,                 !- Hour 16
    0.29498,                 !- Hour 17
    0.5531,                  !- Hour 18
    0.89693,                 !- Hour 19
    0.89693,                 !- Hour 20
    0.89693,                 !- Hour 21
    1,                       !- Hour 22
    1,                       !- Hour 23
    1;                       !- Hour 24

Schedule:Day:Hourly,
    LightingDay,             !- Name
    Fraction,                !- Schedule Type Limits Name
    0.0625,                  !- Hour 1
    0.0625,                  !- Hour 2
    0.0625,                  !- Hour 3
    0.0625,                  !- Hour 4
    0.1875,                  !- Hour 5
    0.390625,                !- Hour 6
    0.4375,                  !- Hour 7
    0.390625,                !- Hour 8
    0.171875,                !- Hour 9
    0.1171875,               !- Hour 10
    0.1171875,               !- Hour 11
    0.1171875,               !- Hour 12
    0.1171875,               !- Hour 13
    0.1171875,               !- Hour 14
    0.1171875,               !- Hour 15
    0.203125,                !- Hour 16
    0.4375,                  !- Hour 17
    0.609375,                !- Hour 18
    0.8203125,               !- Hour 19
    0.984375,                !- Hour 20
    1,                       !- Hour 21
    0.6875,                  !- Hour 22
    0.3828125,               !- Hour 23
    0.15625;                 !- Hour 24

Schedule:Day:Hourly,
    LightingDay_EELighting_OccSensors,  !- Name
    Fraction,                !- Schedule Type Limits Name
    0.065170403,             !- Hour 1
    0.065170403,             !- Hour 2
    0.065170403,             !- Hour 3
    0.065170403,             !- Hour 4
    0.195511208,             !- Hour 5
    0.407315016,             !- Hour 6
    0.456192818,             !- Hour 7
    0.407315016,             !- Hour 8
    0.179218607,             !- Hour 9
    0.122194505,             !- Hour 10
    0.122194505,             !- Hour 11
    0.122194505,             !- Hour 12
    0.122194505,             !- Hour 13
    0.122194505,             !- Hour 14
    0.122194505,             !- Hour 15
    0.211803808,             !- Hour 16
    0.456192818,             !- Hour 17
    0.635411425,             !- Hour 18
    0.855361533,             !- Hour 19
    0.947933128,             !- Hour 20
    0.947933128,             !- Hour 21
    0.716874428,             !- Hour 22
    0.399168715,             !- Hour 23
    0.162926006;             !- Hour 24

Schedule:Day:Hourly,
    LightingDay_EELighting_Garage_OccSensors,  !- Name
    Fraction,                !- Schedule Type Limits Name
    0.048125,                !- Hour 1
    0.048125,                !- Hour 2
    0.048125,                !- Hour 3
    0.048125,                !- Hour 4
    0.144375,                !- Hour 5
    0.30078125,              !- Hour 6
    0.336875,                !- Hour 7
    0.30078125,              !- Hour 8
    0.13234375,              !- Hour 9
    0.090234375,             !- Hour 10
    0.090234375,             !- Hour 11
    0.090234375,             !- Hour 12
    0.090234375,             !- Hour 13
    0.090234375,             !- Hour 14
    0.090234375,             !- Hour 15
    0.15640625,              !- Hour 16
    0.336875,                !- Hour 17
    0.46921875,              !- Hour 18
    0.631640625,             !- Hour 19
    0.7,                     !- Hour 20
    0.7,                     !- Hour 21
    0.529375,                !- Hour 22
    0.294765625,             !- Hour 23
    0.1203125;               !- Hour 24

Schedule:Day:Hourly,
    ExteriorLightingDay,     !- Name
    Fraction,                !- Schedule Type Limits Name
    1,                       !- Hour 1
    1,                       !- Hour 2
    1,                       !- Hour 3
    1,                       !- Hour 4
    1,                       !- Hour 5
    1,                       !- Hour 6
    0,                       !- Hour 7
    0,                       !- Hour 8
    0,                       !- Hour 9
    0,                       !- Hour 10
    0,                       !- Hour 11
    0,                       !- Hour 12
    0,                       !- Hour 13
    0,                       !- Hour 14
    0,                       !- Hour 15
    0,                       !- Hour 16
    0,                       !- Hour 17
    0,                       !- Hour 18
    1,                       !- Hour 19
    1,                       !- Hour 20
    1,                       !- Hour 21
    1,                       !- Hour 22
    1,                       !- Hour 23
    1;                       !- Hour 24

Schedule:Day:Hourly,
    LightingDay_EELighting,  !- Name
    Fraction,                !- Schedule Type Limits Name
    0.06875,                 !- Hour 1
    0.06875,                 !- Hour 2
    0.06875,                 !- Hour 3
    0.06875,                 !- Hour 4
    0.20625,                 !- Hour 5
    0.4296875,               !- Hour 6
    0.48125,                 !- Hour 7
    0.4296875,               !- Hour 8
    0.1890625,               !- Hour 9
    0.12890625,              !- Hour 10
    0.12890625,              !- Hour 11
    0.12890625,              !- Hour 12
    0.12890625,              !- Hour 13
    0.12890625,              !- Hour 14
    0.12890625,              !- Hour 15
    0.2234375,               !- Hour 16
    0.48125,                 !- Hour 17
    0.6703125,               !- Hour 18
    0.90234375,              !- Hour 19
    1,                       !- Hour 20
    1,                       !- Hour 21
    0.75625,                 !- Hour 22
    0.42109375,              !- Hour 23
    0.171875;                !- Hour 24

Schedule:Day:Hourly,
    RefrigeratorDay,         !- Name
    Fraction,                !- Schedule Type Limits Name
    0.8,                     !- Hour 1
    0.782696177062374,       !- Hour 2
    0.765593561368209,       !- Hour 3
    0.742857142857143,       !- Hour 4
    0.731388329979879,       !- Hour 5
    0.731388329979879,       !- Hour 6
    0.759959758551308,       !- Hour 7
    0.8,                     !- Hour 8
    0.817102615694165,       !- Hour 9
    0.828571428571429,       !- Hour 10
    0.8,                     !- Hour 11
    0.8,                     !- Hour 12
    0.839839034205231,       !- Hour 13
    0.839839034205231,       !- Hour 14
    0.828571428571429,       !- Hour 15
    0.839839034205231,       !- Hour 16
    0.885714285714286,       !- Hour 17
    0.971428571428572,       !- Hour 18
    1,                       !- Hour 19
    0.971428571428572,       !- Hour 20
    0.942857142857143,       !- Hour 21
    0.925553319919517,       !- Hour 22
    0.885714285714286,       !- Hour 23
    0.828571428571429;       !- Hour 24

Schedule:Day:Hourly,
    MiscPlugLoadDay,         !- Name
    Fraction,                !- Schedule Type Limits Name
    0.607490272373541,       !- Hour 1
    0.559338521400778,       !- Hour 2
    0.552853437094682,       !- Hour 3
    0.545071335927367,       !- Hour 4
    0.524481193255512,       !- Hour 5
    0.585278858625162,       !- Hour 6
    0.676232166018158,       !- Hour 7
    0.718547341115435,       !- Hour 8
    0.607490272373541,       !- Hour 9
    0.517023346303502,       !- Hour 10
    0.529182879377432,       !- Hour 11
    0.529345006485084,       !- Hour 12
    0.520428015564202,       !- Hour 13
    0.538424124513619,       !- Hour 14
    0.568741893644617,       !- Hour 15
    0.600356679636835,       !- Hour 16
    0.71011673151751,        !- Hour 17
    0.862678339818418,       !- Hour 18
    0.936608300907912,       !- Hour 19
    0.966763942931258,       !- Hour 20
    1,                       !- Hour 21
    0.976653696498055,       !- Hour 22
    0.845168612191959,       !- Hour 23
    0.73443579766537;        !- Hour 24

Schedule:Day:Hourly,
    CookingRangeDay,         !- Name
    Fraction,                !- Schedule Type Limits Name
    0.04715848452508,        !- Hour 1
    0.04715848452508,        !- Hour 2
    0.0235458911419424,      !- Hour 3
    0.0235458911419424,      !- Hour 4
    0.04715848452508,        !- Hour 5
    0.0707043756670224,      !- Hour 6
    0.165088046958378,       !- Hour 7
    0.283017609391676,       !- Hour 8
    0.306563500533618,       !- Hour 9
    0.320771077908218,       !- Hour 10
    0.283017609391676,       !- Hour 11
    0.330176093916756,       !- Hour 12
    0.377334578441836,       !- Hour 13
    0.306563500533618,       !- Hour 14
    0.292422625400213,       !- Hour 15
    0.377334578441836,       !- Hour 16
    0.613193703308431,       !- Hour 17
    1,                       !- Hour 18
    0.778348452508004,       !- Hour 19
    0.400947171824973,       !- Hour 20
    0.235859124866596,       !- Hour 21
    0.165088046958378,       !- Hour 22
    0.103721985058698,       !- Hour 23
    0.0707043756670224;      !- Hour 24

Schedule:Day:Hourly,
    DishwasherWeekday_flow_sch,  !- Name
    Fraction,                !- Schedule Type Limits Name
    0.129162158913331,       !- Hour 1
    0.0573867051328282,      !- Hour 2
    0.0429979564851542,      !- Hour 3
    0.0286933525664145,      !- Hour 4
    0.0286933525664145,      !- Hour 5
    0.0860800576992427,      !- Hour 6
    0.172244260127419,       !- Hour 7
    0.258408462555596,       !- Hour 8
    0.488207717273711,       !- Hour 9
    0.545594422406539,       !- Hour 10
    0.473818968626037,       !- Hour 11
    0.402043514845535,       !- Hour 12
    0.344572664983772,       !- Hour 13
    0.387654766197861,       !- Hour 14
    0.315879312417358,       !- Hour 15
    0.301490563769684,       !- Hour 16
    0.315879312417358,       !- Hour 17
    0.416348118764274,       !- Hour 18
    0.732311575910566,       !- Hour 19
    0.93333333333333,        !- Hour 20
    0.761004928476981,       !- Hour 21
    0.559983171054213,       !- Hour 22
    0.373266017550187,       !- Hour 23
    0.258408462555596;       !- Hour 24

Schedule:Day:Hourly,
    DishwasherWeekend_flow_sch,  !- Name
    Fraction,                !- Schedule Type Limits Name
    0.13838802740714,        !- Hour 1
    0.0614857554994591,      !- Hour 2
    0.0460692390912369,      !- Hour 3
    0.0307428777497295,      !- Hour 4
    0.0307428777497295,      !- Hour 5
    0.0922286332491886,      !- Hour 6
    0.184547421565092,       !- Hour 7
    0.276866209880995,       !- Hour 8
    0.523079697078976,       !- Hour 9
    0.584565452578435,       !- Hour 10
    0.507663180670754,       !- Hour 11
    0.430760908763072,       !- Hour 12
    0.369184998196899,       !- Hour 13
    0.41534439235485,        !- Hour 14
    0.338442120447169,       !- Hour 15
    0.323025604038947,       !- Hour 16
    0.338442120447169,       !- Hour 17
    0.44608727010458,        !- Hour 18
    0.784619545618464,       !- Hour 19
    1,                       !- Hour 20
    0.815362423368193,       !- Hour 21
    0.599981968986657,       !- Hour 22
    0.399927875946628,       !- Hour 23
    0.276866209880995;       !- Hour 24

Schedule:Day:Hourly,
    DishwasherVacation_flow_sch,  !- Name
    Fraction,                !- Schedule Type Limits Name
    0,                       !- Hour 1
    0,                       !- Hour 2
    0,                       !- Hour 3
    0,                       !- Hour 4
    0,                       !- Hour 5
    0,                       !- Hour 6
    0,                       !- Hour 7
    0,                       !- Hour 8
    0,                       !- Hour 9
    0,                       !- Hour 10
    0,                       !- Hour 11
    0,                       !- Hour 12
    0,                       !- Hour 13
    0,                       !- Hour 14
    0,                       !- Hour 15
    0,                       !- Hour 16
    0,                       !- Hour 17
    0,                       !- Hour 18
    0,                       !- Hour 19
    0,                       !- Hour 20
    0,                       !- Hour 21
    0,                       !- Hour 22
    0,                       !- Hour 23
    0;                       !- Hour 24

Schedule:Day:Hourly,
    DishwasherWeekday_equip_sch,  !- Name
    Fraction,                !- Schedule Type Limits Name
    0.129162158913331,       !- Hour 1
    0.0573867051328282,      !- Hour 2
    0.0429979564851542,      !- Hour 3
    0.0286933525664145,      !- Hour 4
    0.0286933525664145,      !- Hour 5
    0.0860800576992427,      !- Hour 6
    0.172244260127419,       !- Hour 7
    0.258408462555596,       !- Hour 8
    0.488207717273711,       !- Hour 9
    0.545594422406539,       !- Hour 10
    0.473818968626037,       !- Hour 11
    0.402043514845535,       !- Hour 12
    0.344572664983772,       !- Hour 13
    0.387654766197861,       !- Hour 14
    0.315879312417358,       !- Hour 15
    0.301490563769684,       !- Hour 16
    0.315879312417358,       !- Hour 17
    0.416348118764274,       !- Hour 18
    0.732311575910566,       !- Hour 19
    0.93333333333333,        !- Hour 20
    0.761004928476981,       !- Hour 21
    0.559983171054213,       !- Hour 22
    0.373266017550187,       !- Hour 23
    0.258408462555596;       !- Hour 24

Schedule:Day:Hourly,
    DishwasherWeekend_equip_sch,  !- Name
    Fraction,                !- Schedule Type Limits Name
    0.13838802740714,        !- Hour 1
    0.0614857554994591,      !- Hour 2
    0.0460692390912369,      !- Hour 3
    0.0307428777497295,      !- Hour 4
    0.0307428777497295,      !- Hour 5
    0.0922286332491886,      !- Hour 6
    0.184547421565092,       !- Hour 7
    0.276866209880995,       !- Hour 8
    0.523079697078976,       !- Hour 9
    0.584565452578435,       !- Hour 10
    0.507663180670754,       !- Hour 11
    0.430760908763072,       !- Hour 12
    0.369184998196899,       !- Hour 13
    0.41534439235485,        !- Hour 14
    0.338442120447169,       !- Hour 15
    0.323025604038947,       !- Hour 16
    0.338442120447169,       !- Hour 17
    0.44608727010458,        !- Hour 18
    0.784619545618464,       !- Hour 19
    1,                       !- Hour 20
    0.815362423368193,       !- Hour 21
    0.599981968986657,       !- Hour 22
    0.399927875946628,       !- Hour 23
    0.276866209880995;       !- Hour 24

Schedule:Day:Hourly,
    DishwasherVacation_equip_sch,  !- Name
    Fraction,                !- Schedule Type Limits Name
    0,                       !- Hour 1
    0,                       !- Hour 2
    0,                       !- Hour 3
    0,                       !- Hour 4
    0,                       !- Hour 5
    0,                       !- Hour 6
    0,                       !- Hour 7
    0,                       !- Hour 8
    0,                       !- Hour 9
    0,                       !- Hour 10
    0,                       !- Hour 11
    0,                       !- Hour 12
    0,                       !- Hour 13
    0,                       !- Hour 14
    0,                       !- Hour 15
    0,                       !- Hour 16
    0,                       !- Hour 17
    0,                       !- Hour 18
    0,                       !- Hour 19
    0,                       !- Hour 20
    0,                       !- Hour 21
    0,                       !- Hour 22
    0,                       !- Hour 23
    0;                       !- Hour 24

Schedule:Day:Hourly,
    ClothesWasherWeekday_flow_sch,  !- Name
    Fraction,                !- Schedule Type Limits Name
    0.0887931470412736,      !- Hour 1
    0.0710155041111689,      !- Hour 2
    0.0354602182509584,      !- Hour 3
    0.0354602182509584,      !- Hour 4
    0.0710155041111689,      !- Hour 5
    0.106570789971378,       !- Hour 6
    0.213141579942758,       !- Hour 7
    0.461933513354977,       !- Hour 8
    0.69294780383709,        !- Hour 9
    0.817391304347826,       !- Hour 10
    0.799613661417722,       !- Hour 11
    0.710725446767196,       !- Hour 12
    0.639614875046775,       !- Hour 13
    0.568599370935607,       !- Hour 14
    0.497488799215186,       !- Hour 15
    0.461933513354977,       !- Hour 16
    0.479711156285081,       !- Hour 17
    0.461933513354977,       !- Hour 18
    0.461933513354977,       !- Hour 19
    0.461933513354977,       !- Hour 20
    0.461933513354977,       !- Hour 21
    0.444155870424871,       !- Hour 22
    0.302029794593282,       !- Hour 23
    0.159903718761693;       !- Hour 24

Schedule:Day:Hourly,
    ClothesWasherWeekend_flow_sch,  !- Name
    Fraction,                !- Schedule Type Limits Name
    0.108629913933473,       !- Hour 1
    0.086880669923238,       !- Hour 2
    0.0433821819027681,      !- Hour 3
    0.0433821819027681,      !- Hour 4
    0.086880669923238,       !- Hour 5
    0.130379157943708,       !- Hour 6
    0.260758315887416,       !- Hour 7
    0.565131425913003,       !- Hour 8
    0.847755291928355,       !- Hour 9
    1,                       !- Hour 10
    0.978250755989765,       !- Hour 11
    0.86950453593859,        !- Hour 12
    0.782507559897651,       !- Hour 13
    0.695626889974413,       !- Hour 14
    0.608629913933473,       !- Hour 15
    0.565131425913003,       !- Hour 16
    0.586880669923238,       !- Hour 17
    0.565131425913003,       !- Hour 18
    0.565131425913003,       !- Hour 19
    0.565131425913003,       !- Hour 20
    0.565131425913003,       !- Hour 21
    0.543382181902768,       !- Hour 22
    0.36950453593859,        !- Hour 23
    0.195626889974413;       !- Hour 24

Schedule:Day:Hourly,
    ClothesWasherVacation_flow_sch,  !- Name
    Fraction,                !- Schedule Type Limits Name
    0,                       !- Hour 1
    0,                       !- Hour 2
    0,                       !- Hour 3
    0,                       !- Hour 4
    0,                       !- Hour 5
    0,                       !- Hour 6
    0,                       !- Hour 7
    0,                       !- Hour 8
    0,                       !- Hour 9
    0,                       !- Hour 10
    0,                       !- Hour 11
    0,                       !- Hour 12
    0,                       !- Hour 13
    0,                       !- Hour 14
    0,                       !- Hour 15
    0,                       !- Hour 16
    0,                       !- Hour 17
    0,                       !- Hour 18
    0,                       !- Hour 19
    0,                       !- Hour 20
    0,                       !- Hour 21
    0,                       !- Hour 22
    0,                       !- Hour 23
    0;                       !- Hour 24

Schedule:Day:Hourly,
    ClothesWasherWeekday_equip_sch,  !- Name
    Fraction,                !- Schedule Type Limits Name
    0.0887931470412736,      !- Hour 1
    0.0710155041111689,      !- Hour 2
    0.0354602182509584,      !- Hour 3
    0.0354602182509584,      !- Hour 4
    0.0710155041111689,      !- Hour 5
    0.106570789971378,       !- Hour 6
    0.213141579942758,       !- Hour 7
    0.461933513354977,       !- Hour 8
    0.69294780383709,        !- Hour 9
    0.817391304347826,       !- Hour 10
    0.799613661417722,       !- Hour 11
    0.710725446767196,       !- Hour 12
    0.639614875046775,       !- Hour 13
    0.568599370935607,       !- Hour 14
    0.497488799215186,       !- Hour 15
    0.461933513354977,       !- Hour 16
    0.479711156285081,       !- Hour 17
    0.461933513354977,       !- Hour 18
    0.461933513354977,       !- Hour 19
    0.461933513354977,       !- Hour 20
    0.461933513354977,       !- Hour 21
    0.444155870424871,       !- Hour 22
    0.302029794593282,       !- Hour 23
    0.159903718761693;       !- Hour 24

Schedule:Day:Hourly,
    ClothesWasherWeekend_equip_sch,  !- Name
    Fraction,                !- Schedule Type Limits Name
    0.108629913933473,       !- Hour 1
    0.086880669923238,       !- Hour 2
    0.0433821819027681,      !- Hour 3
    0.0433821819027681,      !- Hour 4
    0.086880669923238,       !- Hour 5
    0.130379157943708,       !- Hour 6
    0.260758315887416,       !- Hour 7
    0.565131425913003,       !- Hour 8
    0.847755291928355,       !- Hour 9
    1,                       !- Hour 10
    0.978250755989765,       !- Hour 11
    0.86950453593859,        !- Hour 12
    0.782507559897651,       !- Hour 13
    0.695626889974413,       !- Hour 14
    0.608629913933473,       !- Hour 15
    0.565131425913003,       !- Hour 16
    0.586880669923238,       !- Hour 17
    0.565131425913003,       !- Hour 18
    0.565131425913003,       !- Hour 19
    0.565131425913003,       !- Hour 20
    0.565131425913003,       !- Hour 21
    0.543382181902768,       !- Hour 22
    0.36950453593859,        !- Hour 23
    0.195626889974413;       !- Hour 24

Schedule:Day:Hourly,
    ClothesWasherVacation_equip_sch,  !- Name